!!>>>>>>>>>>>>>>>>>>>>>>>>>>>>>>>>>>>>>>>>>>>>>>>>>>>>>>>>>>>>>>>>>>>>>>
!! NEMO/OPA  :  1 - run manager      (namrun)
!! namelists    2 - Domain           (namzgr, namzgr_sco, namdom)
!!              4 - lateral boundary (namlbc, namcla)
!!              6 - Tracer           (nameos)
!!              9 - diagnostics      (namnc4)
!!             10 - miscellaneous    (nammpp, nammpp_dyndist, namctl)
!!             11 - Obs & Assim      (namobs_var, nam_asminc, nambias)
!!>>>>>>>>>>>>>>>>>>>>>>>>>>>>>>>>>>>>>>>>>>>>>>>>>>>>>>>>>>>>>>>>>>>>>>
!!======================================================================
!!                   ***  Run management namelists  ***
!!======================================================================
!!   namrun        parameters of the run
!!======================================================================
!
!-----------------------------------------------------------------------
&namrun	!    parameters of the run
!-----------------------------------------------------------------------
nn_no               = 1                       !   job number
cn_exp              = "ORCA2_Z31"             ! 
nn_it000            = 1                       !   first time step
nn_itend            = 24                      ! 
nn_date0            = 20090101                !   initial calendar date yymmdd (used if nn_rstctl
nn_leapy            = 1                       !   Leap year calendar (1) or not (0)
ln_rstart           = .true.                  !   start from rest (F) or from a restart file (T)
nn_rstctl           = 0                       !   restart control 
cn_ocerst_in        = "restart"               !   suffix of ocean restart name (input)
cn_ocerst_out       = "restart"               !   suffix of ocean restart name (output)
nn_istate           = 0                       !   output the initial state (1) or not (0)
nn_stock            = 24                      ! 
nn_write            = 24                      ! 
ln_dimgnnn          = .false.                 !   DIMG file format: 1 file for all processors (F) or by processor (T)
ln_mskland          = .false.                 !   mask land points in NetCDF outputs (costly: + ~15%)
ln_clobber          = .false.                 !   clobber (overwrite) an existing file
nn_chunksz          = 0                       !   chunksize (bytes) for NetCDF file (works only with iom_nf90 routines)
nn_inc_out_prec     = 8                       !   precision of the increments in the output NetCDF file (4 
nn_normfac_out_prec = 8                       !   precision of the normalization factor files in the output file (4 
cn_oceinc_out       = "increments_outer"      !    suffix of increment name (output)
cn_oceinc_out_path  = "."                     !    path of increment files  (output)
cn_oceinc_in        = "increments_outer"      !    suffix of increment name (input)
cn_oceinc_in_path   = "."                     !    path of increment files  (input)
cn_rstctl_out       = "restart_ctlvec_outer"  !    suffix of restart ctlvec files (output)
cn_rstctl_out_path  = "."                     !    path of restart ctlvec files (output)
/ 
!!======================================================================
!!                      ***  Domain namelists  ***
!!======================================================================
!!   namzgr       vertical coordinate
!!   namzgr_sco   s-coordinate or hybrid z-s-coordinate
!!   namdom       space and time domain (bathymetry, mesh, timestep)
!!   namtsd       data: temperature & salinity
!!======================================================================
!
!-----------------------------------------------------------------------
&namzgr	!    vertical coordinate
!-----------------------------------------------------------------------
ln_zco = .false.  !   z-coordinate - full    steps   (T/F)      ("key_zco" may also be defined)
ln_zps = .true.   !   z-coordinate - partial steps   (T/F)
ln_sco = .false.  !   s- or hybrid z-s-coordinate    (T/F)
/ 
!-----------------------------------------------------------------------
&namzgr_sco	!    s-coordinate or hybrid z-s-coordinate
!-----------------------------------------------------------------------
rn_sbot_min = 300.   !   minimum depth of s-bottom surface (>0) (m)
rn_sbot_max = 5250.  !   maximum depth of s-bottom surface (
rn_theta    = 6.0    !   surface control parameter (0<
rn_thetb    = 0.75   !   bottom control parameter  (0<
rn_rmax     = 0.15   !   maximum cut-off r-value allowed (0<rn_max<1)
rn_bb       = 0.8    !   stretching with s-sigma
rn_hc       = 150.0  !   critical depth with s-sigma
/ 
!-----------------------------------------------------------------------
&namdom	!    space and time domain (bathymetry, mesh, timestep)
!-----------------------------------------------------------------------
nn_bathy            = 1        !   compute (
nn_closea           = 0        !   remove (
nn_msh              = 0        !   create (
rn_hmin             = -3.      !   min depth of the ocean (>0) or min number of ocean level (<0)
rn_e3zps_min        = 20.      !   partial step thickness is set larger than the minimum of
rn_e3zps_rat        = 0.1      !   rn_e3zps_min and rn_e3zps_rat*e3t, with 0<rn_e3zps_rat<1
rn_rdt              = 3600.0   !   time step for the dynamics (and tracer if nn_acc
nn_baro             = 64       !   number of barotropic time step            ("key_dynspg_ts")
rn_atfp             = 0.1      !   asselin time filter parameter
nn_acc              = 0        !   acceleration of convergence : 
rn_rdtmin           = 28800.   !   minimum time step on tracers (used if nn_acc
rn_rdtmax           = 28800.   !   maximum time step on tracers (used if nn_acc
rn_rdth             = 800.     !   depth variation of tracer time step  (used if nn_acc
ln_read_closea_mask = .false.  !  Open coordinates file and read the closed sea mask
/ 
!-----------------------------------------------------------------------
&namdom_sup	!  Additional domain settings
!-----------------------------------------------------------------------
jphgr_msh = 0                  !   type of horizontal mesh
ppglam0   = 999999.0           !   longitude of first raw and column T-point (jphgr_msh 
ppgphi0   = 999999.0           !  latitude  of first raw and column T-point (jphgr_msh 
ppe1_deg  = 999999.0           !   zonal      grid-spacing (degrees)
ppe2_deg  = 999999.0           !   meridional grid-spacing (degrees)
ppe1_m    = 999999.0           !   zonal      grid-spacing (degrees)
ppe2_m    = 999999.0           !   meridional grid-spacing (degrees)
ppsur     = -3152.95254623653  !   ORCA r4, r2 and r05 coefficients
ppa0      = 155.00000000000    !  (default coefficients)
ppa1      = 145.00000000000    ! 
ppkth     = 25.48709749900     ! 
ppacr     = 5.5                ! 
ppdzmin   = 999999.            !   Minimum vertical spacing
pphmax    = 999999.            !   Maximum depth
ldbletanh = .false.            !   Use/do not use double tanf function for vertical coordinates
ppa2      = 999999.            !   Double tanh function parameters
ppkth2    = 999999.            ! 
ppacr2    = 999999.            ! 
/ 
!!======================================================================
!!               ***  Lateral boundary condition  ***
!!======================================================================
!!   namlbc        lateral momentum boundary condition
!!   namcla        cross land advection
!!======================================================================
!
!-----------------------------------------------------------------------
&namlbc	!    lateral momentum boundary condition
!-----------------------------------------------------------------------
rn_shlat  = 2.       !   shlat 
ln_vorlat = .false.  !   consistency of vorticity boundary condition with analytical eqs.
/ 
!-----------------------------------------------------------------------
&namcla	!    cross land advection
!-----------------------------------------------------------------------
nn_cla = 0  !   advection between 2 ocean pts separates by land
/ 
!!======================================================================
!!                        Tracer (T & S ) namelists
!!======================================================================
!!   nameos        equation of state
!!======================================================================
!
!-----------------------------------------------------------------------
&nameos	!    ocean physical parameters
!-----------------------------------------------------------------------
nn_eos   = 0       !   type of equation of state and Brunt-Vaisala frequency
rn_alpha = 2.0e-4  !   thermal expension coefficient (nn_eos
rn_beta  = 7.7e-4  !   saline  expension coefficient (nn_eos
/ 
!!======================================================================
!!                  ***  Miscellaneous namelists  ***
!!======================================================================
!!   nammpp            Massively Parallel Processing                    ("key_mpp_mpi")
!!   namctl            Control prints & Benchmark
!!======================================================================
!
!-----------------------------------------------------------------------
&nammpp	!    Massively Parallel Processing                        ("key_mpp_mpi")
!-----------------------------------------------------------------------
cn_mpi_send  = 'I'     !   mpi send/recieve type   
nn_buffer    = 0       !   size in bytes of exported buffer ('B' case), 0 no exportation
jpni         = 1       !   jpni   number of processors following i (set automatically if < 1)
jpnj         = 1       !   jpnj   number of processors following j (set automatically if < 1)
jpnij        = 1       !   jpnij  number of local domains (set automatically if < 1)
ln_nnogather = .true.  ! 
/ 
!-----------------------------------------------------------------------
&namcfg	!    parameters of the configuration
!-----------------------------------------------------------------------
cp_cfg      = "orca"  !   name of the configuration
jp_cfg      =       2               !  resolution of the configuration
jpidta      =     182               !  1st lateral dimension ( >= jpi )
jpjdta      =     149               !  2nd    "         "    ( >= jpj )
jpkdta      =      31               !  number of levels      ( >= jpk )
jpiglo      =     182               !  1st dimension of global domain --> i =jpidta
jpjglo      =     149               !  2nd    -                  -    --> j  =jpjdta
jperio      =       4               !  lateral cond. type (between 0 and 6)
ln_trabbl   = .TRUE.                !  key_trabbl set
ln_zdfddm   = .TRUE.                !  key_zdfddm
ln_traldf_eiv  = .TRUE.         !  key_traldf_eiv
/ 
!-----------------------------------------------------------------------
&namctl	!    Control prints & Benchmark
!-----------------------------------------------------------------------
ln_ctl              = .false.  !   trends control print (expensive
ln_errfort          = .false.  !   output fort files on error
nn_print            = 0        !   level of print (0 no extra print)
nn_ictls            = 0        !   start i indice of control sum (use to compare mono versus
nn_ictle            = 0        !   end   i indice of control sum        multi processor runs
nn_jctls            = 0        !   start j indice of control               over a subdomain)
nn_jctle            = 0        !   end   j indice of control
nn_isplt            = 1        !   number of processors in i-direction
nn_jsplt            = 1        !   number of processors in j-direction
nn_bench            = 0        !   Bench mode (1/0): CAUTION use zero except for bench
nn_timing           = 0        ! 
ln_timing_exclusive = .true.   ! 
ln_timing_overhead  = .true.   ! 
ln_timing_cpu       = .true.   ! 
ln_mtreinit         = .false.  ! 
/ 
!!======================================================================
!!                  ***  Diagnostics namelists  ***
!!======================================================================
!!   namnc4       netcdf4 chunking and compression settings             ("key_netcdf4")
!!   namtrd       dynamics and/or tracer trends                         ("key_trddyn","key_trdtra","key_trdmld")
!!   namflo       float parameters                                      ("key_float")
!!   namptr       Poleward Transport Diagnostics
!!   namhsb       Heat and salt budgets
!!======================================================================
!
!-----------------------------------------------------------------------
&namnc4	!    netcdf4 chunking and compression settings            ("key_netcdf4")
!-----------------------------------------------------------------------
nn_nchunks_i = 4       !   number of chunks in i-dimension
nn_nchunks_j = 4       !   number of chunks in j-dimension
nn_nchunks_k = 31      !   number of chunks in k-dimension
ln_nc4zip    = .true.  !   (T) use netcdf4 chunking and compression
/ 
!!======================================================================
!!            ***  Observation & Assimilation namelists ***
!!======================================================================
!!   namobs       observation and model comparison
!!   nam_asminc   assimilation increments
!!======================================================================
!
&namobs	!   observation usage switch
!-----------------------------------------------------------------------
ln_t3d                = .true.                   !  Logical switch for T profile observations
ln_s3d                = .true.                   !  Logical switch for S profile observations
ln_ena                = .false.                  !  Logical switch for ENACT insitu data set
ln_cor                = .false.                  !  Logical switch for Coriolis insitu data set
ln_profb              = .true.                   !  Logical switch for feedback insitu data set
ln_sla                = .true.                   !  Logical switch for SLA observations
ln_sladt              = .false.                  !  Logical switch for AVISO SLA data
ln_slafb              = .true.                   !  Logical switch for feedback SLA data
ln_sst                = .false.                  !  Logical switch for SST observations
ln_sstbias            = .false.                  ! 
ln_grdsst             = .false.                  ! 
ln_sstfb              = .false.                  !  Logical switch for feedback SST data
profbfiles            = 'profiles_01.nc'         ! 
enactfiles            = ''                       ! 
ln_profb_enatim       = .true.                   ! 
slafbfiles            = 'sla_01.nc'              ! 
nmsshc                = 1                        !  MSSH correction scheme
ln_altbias            = .false.                  !  Logical switch for alt bias
ln_ignmis             = .false.                  !  Logical switch for ignoring missing files
ln_grid_global        = .true.                   ! 
ln_grid_search_lookup = .false.                  ! 
ln_velfb              = .false.                  ! 
velfbfiles            = ''                       ! 
ln_velfb_av           = .false.                  ! 
n1dint                = 1                        ! 
n2dint                = 3                        ! 
ln_nea                = .true.                   ! 
mdtcutoff             = 65.0                     ! 
mdtcorr               = 1.61                     ! 
dobsini               = 20090101                 ! 
dobsend               = 20090110                 ! 
ln_profb_ena          = .true.                   ! 
ln_seaice             = .false.                  ! 
ln_grdseaice          = .false.                  ! 
grdseaicename         = 'ice_cover_yYYYYmMM.nc'  ! 
/ 
!-----------------------------------------------------------------------
&nam_asminc	!    assimilation increments
!-----------------------------------------------------------------------
ln_bkgwri = .false.  !   Logical switch for writing out background state
ln_asmdin = .true.   !   Logical switch for Direct Initialization (DI)
ln_asmiau = .false.  !   Logical switch for Incremental Analysis Updating (IAU)
nitbkg    = 0        !   Timestep of background in [0,nitend-nit000-1]
nitdin    = 0        !   Timestep of background for DI in [0,nitend-nit000-1]
nitiaustr = 1        !   Timestep of start of IAU interval in [0,nitend-nit000-1]
nitiaufin = 24       ! 
niaufn    = 0        !   Type of IAU weighting function
ln_salfix = .false.  !   Logical switch for ensuring that the sa > salfixmin
salfixmin = -9999    !   Minimum salinity after applying the increments
nn_divdmp = 0        !   Number of iterations of divergence damping operator
/ 
! ======================================================================
! NEMO/VAR specific section
! ======================================================================
!-----------------------------------------------------------------------
!       namobs_var    inner loop observation usage switch
! ln_p3d                   ! Switch for profiles
! ln_t3d                   ! Switch for temperature profiles
! ln_s3d                   ! Switch for salinity profiles
! ln_sla                   ! Switch for sea level anomalies
! ln_sst                   ! Switch for sea surface temperature data
! ln_sst_grid              ! Switch for gridded sea surface temperature data
! ln_sst_grid_write        ! Switch for writing the gridded SST fields as output
! ln_sss                   ! Switch for sea surface salinity data
! ln_ssv                   ! Switch for sea surface velocity data
! ln_sic                   ! Switch for sea ice concentration data
! ln_grid_search           ! Switch for redoing grid search
! ln_grid_search_lookup    ! Switch for using lookup table to speed up grid search
! ln_grid_global           ! Switch for using global distribution of observations
! ln_sgl                   ! Switch for single observation experiment
! ln_p3d_vthin             ! Switch for vertical thinning of TS profiles
! ln_sla_superob           ! Switch for using SLA superob information to define the SLA OBE std dev
! ln_sla_remmean           ! Switch for removing mean from SLA data
! ln_sla_remmean_all       ! Switch for using mean of all SLA satellites rather than individual satellites
!
! ln_obsini                ! Switch for including observations at start or end of time window
!  .TRUE.  = include observations that satisfy (default value):
!              time window start <= obs time <  time window end
!  .FALSE. = include observations that satisfy:
!              time window start <  obs time <= time window end
! ln_minval_sst            ! Switch for rejecting SST observations smaller than a minimum value
! ln_minval_sss            ! Switch for rejecting SSS observations smaller than a minimum value
! ln_minval_ssv            ! Switch for rejecting SSV observations smaller than a minimum value
! ln_nearlandrej           ! Switch for rejecting observations near land
! ln_ranrej_p3d            ! Switch for random rejection of profile observations with specified probability
! ln_ranrej_sla            ! Switch for random rejection of SLA     observations with specified probability
!
! Switches for specifying the footprint size units for different observation types:
!   = .TRUE.  => in degrees
!   = .FALSE. => in metres
!
! ln_fpindegs_sla          !   Switch for SLA footprint
! ln_fpindegs_sst          !   Switch for SST footprint
! ln_fpindegs_sss          !   Switch for SSS footprint
! ln_fpindegs_ssv          !   Switch for SSV footprint
! ln_fpindegs_sic          !   Switch for SIC footprint
! ln_dailyavg_p3d          ! Switch for data types that contain daily averages
! nn_sets_p3d              ! Number of profile data sets
! nn_sets_sla              ! Number of SLA data sets
! nn_sets_sst              ! Number of SST data sets
! nn_sets_sss              ! Number of SSS data sets
! nn_sets_ssv              ! Number of SSV data sets
! nn_sets_sic              ! Number of SIC data sets
! nn_z1dint                ! Vertical interpolation method
! nn_h2dint                ! Default horizontal interpolation method (can be changed for specific obs types below)
! nn_p3d_vpos              ! Vertical perturbation of TS profiles: 0 = off, 1 = option 1, 2 = option 2
!                          ! (see comments in subroutine header for obs_vthints)
! nn_p3d_vthin             ! Vertical thinning factor TS profiles
! nn_probrejseed           ! Random number seed for random rejection of observations
! nn_probvtseed            ! Random number seed for vertical perturbation of observations
! nn_rejarea_p3d           ! Number of areas to reject profile observations
! nn_rejarea_sla           ! Number of areas to reject SLA observations
! nn_rejarea_sst           ! Number of areas to reject SST observations
! nn_rejarea_sss           ! Number of areas to reject SSS observations
! nn_rejarea_ssv           ! Number of areas to reject SSV observations
! nn_h2dint_sst            ! Horizontal interpolation method for each set of SST data
! nn_h2dint_sss            ! Horizontal interpolation method for each set of SSS data
! nn_h2dint_ssv            ! Horizontal interpolation method for each set of SSV data
! nn_h2dint_sla            ! Horizontal interpolation method for each set of SLA data
! nn_h2dint_sic            ! Horizontal interpolation method for each set of SIC data
! nn_dailyavgtypes_p3d     ! Profile data types that are daily averages
! nn_rejtype_p3d           ! Rejection types for profile data
! nn_rejtype_sla           ! Rejection types for SLA data
! nn_rejtype_sst           ! Rejection types for SST data
! nn_rejtype_sss           ! Rejection types for SSS data
! nn_rejtype_ssv           ! Rejection types for SSV data
! nn_rejtype_sic           ! Rejection types for SIC data
! rn_maxlat_sst            ! Maximum latitude for SST data
! rn_maxlat_sss            ! Maximum latitude for SSS data
! rn_maxlat_ssv            ! Maximum latitude for SSV data
! rn_maxlat_sla            ! Maximum latitude for SLA data
! rn_mincoadis_t3d         ! Minimum distance to coast for T3D data
! rn_mincoadis_s3d         ! Minimum distance to coast for S3D data
! rn_mincoadis_sla         ! Minimum distance to coast for SLA data
! rn_mincoadis_sst         ! Minimum distance to coast for SST data
! rn_mincoadis_sss         ! Minimum distance to coast for SSS data
! rn_mincoadis_ssv         ! Minimum distance to coast for SSV data
! rn_minmoddep_p3d         ! Minimum model depth for profiles
! rn_minmoddep_sla         ! Minimum model depth for SLA data
! rn_minmoddep_sst         ! Minimum model depth for SST data
! rn_minmoddep_sss         ! Minimum model depth for SSS data
! rn_minmoddep_ssv         ! Minimum model depth for SSV data
! rn_mindep_p3d            ! Minimum depth in T/S profile data
! rn_minlat_sic            ! Minimum latitude for SIC data
! rn_rejminval_sst         ! Threshold minimum value for SST observations
! rn_rejminval_sss         ! Threshold minimum value for SSS observations
! rn_rejminval_ssv         ! Threshold minimum value for SSV observations
! rn_grid_search_res       ! Resolution of grid
! rn_rejminlat_p3d         ! Minimum latitude  of rejection area for profile observations
! rn_rejmaxlat_p3d         ! Maximum latitude  of rejection area for profile observations
! rn_rejminlon_p3d         ! Minimum longitude of rejection area for profile observations
! rn_rejmaxlon_p3d         ! Maximum longitude of rejection area for profile observations
! rn_rejminlat_sla         ! Minimum latitude  of rejection area for SLA observations
! rn_rejmaxlat_sla         ! Maximum latitude  of rejection area for SLA observations
! rn_rejminlon_sla         ! Minimum longitude of rejection area for SLA observations
! rn_rejmaxlon_sla         ! Maximum longitude of rejection area for SLA observations
! rn_rejminlat_sst         ! Minimum latitude  of rejection area for SST observations
! rn_rejmaxlat_sst         ! Maximum latitude  of rejection area for SST observations
! rn_rejminlon_sst         ! Minimum longitude of rejection area for SST observations
! rn_rejmaxlon_sst         ! Maximum longitude of rejection area for SST observations
! rn_rejminlat_sss         ! Minimum latitude  of rejection area for SSS observations
! rn_rejmaxlat_sss         ! Maximum latitude  of rejection area for SSS observations
! rn_rejminlon_sss         ! Minimum longitude of rejection area for SSS observations
! rn_rejmaxlon_sss         ! Maximum longitude of rejection area for SSS observations
! rn_rejminlat_ssv         ! Minimum latitude  of rejection area for SSV observations
! rn_rejmaxlat_ssv         ! Maximum latitude  of rejection area for SSV observations
! rn_rejminlon_ssv         ! Minimum longitude of rejection area for SSV observations
! rn_rejmaxlon_ssv         ! Maximum longitude of rejection area for SSV observations
! rn_lonscl_sst            ! Size of footprint for SST data in i direction for each set
! rn_latscl_sst            ! Size of footprint for SST data in j direction for each set
! rn_lonscl_sss            ! Size of footprint for SSS data in i direction for each set
! rn_latscl_sss            ! Size of footprint for SSS data in j direction for each set
! rn_lonscl_ssv            ! Size of footprint for SSV data in i direction for each set
! rn_latscl_ssv            ! Size of footprint for SSV data in j direction for each set
! rn_lonscl_sla            ! Size of footprint for SLA data in i direction for each set
! rn_latscl_sla            ! Size of footprint for SLA data in j direction for each set
! rn_lonscl_sic            ! Size of footprint for SIC data in i direction for each set
! rn_latscl_sic            ! Size of footprint for SIC data in j direction for each set
! dobsini                  ! Observation window start date YYYYMMDD.HHMMSS
! dobsend                  ! Observation window end date YYYYMMDD.HHMMSS
! rn_rejprob_p3d           ! Probablity for random rejection for profile data
! rn_rejprob_sla           ! Probablity for random rejection for SLA data
! cn_grid_search_file      ! File name head for grid search lookup
! cn_obias_types_sst       ! List of SST observation types to be bias corrected
! cn_obias_types_sss       ! List of SSS observation types to be bias corrected
! cn_obias_types_ssv       ! List of SSV observation types to be bias corrected
! cn_obias_types_sla       ! List of SLA observation types to be bias corrected
! cn_obias_types_sic       ! List of SIC observation types to be bias corrected
! cn_probtypes_p3d         ! Profiles types to randomly reject
! cn_probtypes_sla         ! SLA types to randomly reject
! cn_bltypes_p3d           ! Profiles types to blacklist
! cn_bltypes_sla           ! SLA types to blacklist
!-----------------------------------------------------------------------
&namobs_var	!  inner loop observation usage switch
!-----------------------------------------------------------------------
dobsini                 = 20090101            ! 
dobsend                 = 20090110            ! 
ln_p3d                  = .true.              ! 
ln_t3d                  = .true.              ! 
ln_s3d                  = .true.              ! 
ln_sla                  = .true.              ! 
ln_sst                  = .false.             ! 
ln_sss                  = .false.             ! 
ln_ssv                  = .false.             ! 
ln_sic                  = .false.             ! 
ln_grid_search          = .false.             ! 
ln_grid_search_lookup   = .true.              ! 
ln_grid_global          = .true.              ! 
ln_sla_superob          = .false.             ! 
ln_sla_remmean          = .true.              ! 
ln_sla_remmean_all      = .true.              ! 
ln_sgl                  = .false.             ! 
ln_obsini               = .true.              ! 
ln_p3d_vthin            = .false.             ! 
ln_minval_sst           = .false.             ! 
ln_minval_sss           = .false.             ! 
ln_minval_ssv           = .false.             ! 
ln_nearlandrej          = .false.             ! 
ln_ranrej_p3d           = .false.             ! 
ln_ranrej_sla           = .false.             ! 
ln_fpindegs_sst(:)      = .false.             ! 
ln_fpindegs_sss(:)      = .false.             ! 
ln_fpindegs_ssv(:)      = .false.             ! 
ln_fpindegs_sla(:)      = .false.             ! 
ln_fpindegs_sic(:)      = .false.             ! 
nn_sets_p3d             = 1                   ! 
nn_sets_sla             = 1                   ! 
nn_sets_sst             = 1                   ! 
nn_sets_sss             = 1                   ! 
nn_sets_ssv             = 1                   ! 
nn_sets_sic             = 1                   ! 
nn_z1dint               = 1                   ! 
nn_h2dint               = 3                   ! 
nn_p3d_vthin            = 1                   ! 
nn_p3d_vpos             = 0                   ! 
nn_probvtseed           = -1                  ! 
nn_probrejseed          = -19881228           ! 
nn_rejarea_p3d          = 0                   ! 
nn_rejarea_sla          = 0                   ! 
nn_rejarea_sst          = 0                   ! 
nn_rejarea_sss          = 0                   ! 
nn_rejarea_ssv          = 0                   ! 
nn_h2dint_sst(:)        = 3                   ! 
nn_h2dint_sss(:)        = 3                   ! 
nn_h2dint_ssv(:)        = 3                   ! 
nn_h2dint_sla(:)        = 3                   ! 
nn_h2dint_sic(:)        = 3                   ! 
nn_rejtype_p3d(:)       = -1                  ! 
nn_rejtype_sla(:)       = -1                  ! 
nn_rejtype_sst(:)       = -1                  ! 
nn_rejtype_sss(:)       = -1                  ! 
nn_rejtype_ssv(:)       = -1                  ! 
nn_rejtype_sic(:)       = -1                  ! 